tests/data/state_estimation/current-sensor/local-current-sensor-link-before-line/input.json
{
  "version": "1.0",
  "type": "input",
  "is_batch": false,
  "attributes": {},
  "data": {
    "node": [
      {"id": 1, "u_rated": 10000},
      {"id": 2, "u_rated": 10000},
      {"id": 3, "u_rated": 10000}
    ],
    "link": [
      {"id": 4, "from_node": 1, "to_node": 3, "from_status": 1, "to_status": 1}
    ],
    "line": [
      {"id": 5, "from_node": 3, "to_node": 2, "from_status": 1, "to_status": 1, "r1": 3, "x1": 2, "c1": 1.0e-06, "tan1": 0}
    ],
    "source": [
      {"id": 6, "node": 1, "status": 1, "u_ref": 1}
    ],
    "sym_load": [
      {"id": 7, "node": 2, "status": 1, "type": 0}
    ],
    "sym_voltage_sensor": [
      {"id": 8, "measured_object": 1, "u_sigma": 200, "u_measured": 10000, "u_angle_measured": 0}
    ],
    "sym_current_sensor": [
      {"id": 9, "measured_object": 5, "measured_terminal_type": 0, "angle_measurement_type": 0, "i_sigma": 5, "i_angle_sigma": 0.1, "i_measured": 11, "i_angle_measured": 0.6}
    ]
  }
}
